   12
 
 C     0.000000     0.000000     0.000000
 C     0.000000     0.000000     1.546000
 C     1.509354     0.000000     1.880616
 C     2.065338     1.075069     0.918730
 C     1.202221     0.869825    -0.347374
 C     2.024537    -0.129204     3.110857
 H     2.890982     1.619345     0.872078
 H     1.434376     1.037793    -1.294998
 H    -0.855625     0.054605    -0.495000
 H    -0.694622    -0.502569     2.041000
 H     1.618320    -0.763279     3.753536
 H     3.006013    -0.118975     3.240085
